LTspice 24.0.9 for Windows
Circuit: * H:\GIT\HAM-Radio-transceiver-DA\Amplifiers\PA\10W QRP Amplifier class B.asc
Start Time: Sun Oct 20 09:12:48 2024
Warning: Multiple definitions of model "2scr375p" Type: BJT
Warning: Multiple definitions of model "bc857b" Type: BJT
Warning: Multiple definitions of model "bc847c" Type: BJT
Warning: Multiple definitions of model "bc847b" Type: BJT
solver = Normal
Maximum thread count: 12
tnom = 27
temp = 27
method = modified trap
Direct Newton iteration for .op point succeeded.
Total elapsed time: 0.049 seconds.

