LTspice 24.0.12 for Windows
Circuit: * L:\HAM-Radio-transceiver-DA\Amplifiers\PA\10W QRP Amplifier class B.asc
Start Time: Wed Oct  2 14:01:05 2024
Warning: Multiple definitions of model "2scr375p" Type: BJT
Warning: Multiple definitions of model "bc857b" Type: BJT
Warning: Multiple definitions of model "bc847c" Type: BJT
Warning: Multiple definitions of model "bc847b" Type: BJT
solver = Normal
Maximum thread count: 12
tnom = 27
temp = 27
method = modified trap
Direct Newton iteration for .op point succeeded.
Total elapsed time: 0.125 seconds.

