LTspice 24.0.12 for Windows
Circuit: * L:\HAM-Radio-transceiver-DA\Amplifiers\PA\5W QRP Amplifier.asc
Start Time: Wed Oct  2 14:07:27 2024
solver = Normal
Maximum thread count: 12
tnom = 27
temp = 27
method = modified trap
Direct Newton iteration for .op point succeeded.
Total elapsed time: 2.252 seconds.

