LTspice 24.0.9 for Windows
Circuit: * H:\GIT\HAM-Radio-transceiver-DA\Amplifiers\PA\5W QRP Amplifier from ZL2CTM.asc
Start Time: Sun Nov  3 15:39:17 2024
Warning: Multiple definitions of model "2scr375p" Type: BJT
Warning: Multiple definitions of model "bc857b" Type: BJT
Warning: Multiple definitions of model "bc847c" Type: BJT
Warning: Multiple definitions of model "bc847b" Type: BJT
solver = Normal
Maximum thread count: 12
tnom = 27
temp = 27
method = modified trap
Direct Newton iteration for .op point succeeded.
Total elapsed time: 0.047 seconds.

