LTspice 24.0.9 for Windows
Circuit: * C:\Users\georg\OneDrive\Dokumente\LTspice\PA HF\5W QRP Amplifier.asc
Start Time: Tue Oct  1 06:10:52 2024
solver = Normal
Maximum thread count: 12
tnom = 27
temp = 27
method = modified trap
Direct Newton iteration for .op point succeeded.
Total elapsed time: 0.185 seconds.

