LTspice 24.0.9 for Windows
Circuit: * C:\Users\georg\OneDrive\Dokumente\LTspice\PA HF\Draft3.asc
Start Time: Fri Sep 27 17:53:29 2024
solver = Normal
Maximum thread count: 12
tnom = 27
temp = 27
method = modified trap
.OP point found by inspection.
Total elapsed time: 0.036 seconds.

