LTspice 24.0.9 for Windows
Circuit: * C:\Users\georg\OneDrive\Dokumente\LTspice\PA HF\Draft2.asc
Start Time: Sat Sep 21 13:54:22 2024
Warning: Multiple definitions of model "2scr375p" Type: BJT
Warning: Multiple definitions of model "bc857b" Type: BJT
Warning: Multiple definitions of model "bc847c" Type: BJT
Warning: Multiple definitions of model "bc847b" Type: BJT
solver = Normal
Maximum thread count: 12
tnom = 27
temp = 27
method = modified trap
WARNING: Less than two connections to node nc_01.  This node is used by r3.
WARNING: Less than two connections to node nc_02.  This node is used by r4.
Direct Newton iteration for .op point succeeded.
Total elapsed time: 0.070 seconds.

