LTspice 24.0.12 for Windows
Circuit: * C:\GIT\HAM-Radio-transceiver-DA\filters\20m BP Filter\new\filter (1).asc
Start Time: Tue Feb 25 15:22:06 2025
solver = Normal
Maximum thread count: 12
tnom = 27
temp = 27
method = modified trap
.OP point found by inspection.
Total elapsed time: 0.041 seconds.

