LTspice 24.0.12 for Windows
Circuit: * C:\Users\georg\Downloads\filter (1).asc
Start Time: Mon Feb 10 18:34:28 2025
solver = Normal
Maximum thread count: 12
tnom = 27
temp = 27
method = modified trap
.OP point found by inspection.
Total elapsed time: 0.051 seconds.

