LTspice 24.0.12 for Windows
Circuit: * C:\GIT\HAM-Radio-transceiver-DA\diplexers\Diplexer 30MHz simulation ideal.asc
Start Time: Tue Dec  3 09:38:15 2024
solver = Normal
Maximum thread count: 12
tnom = 27
temp = 27
method = modified trap
.OP point found by inspection.
Total elapsed time: 0.041 seconds.

