LTspice 24.0.12 for Windows
Circuit: * C:\GIT\HAM-Radio-transceiver-DA\Amplifiers\Audio\Headphone amplifier.asc
Start Time: Mon Nov 18 15:42:58 2024
Warning: Multiple definitions of model "2scr375p" Type: BJT
Warning: Multiple definitions of model "bc857b" Type: BJT
Warning: Multiple definitions of model "bc847c" Type: BJT
Warning: Multiple definitions of model "bc847b" Type: BJT
solver = Normal
Maximum thread count: 12
tnom = 27
temp = 27
method = modified trap
Direct Newton iteration for .op point succeeded.
Total elapsed time: 0.054 seconds.

