LTspice 24.0.12 for Windows
Circuit: * C:\GIT\HAM-Radio-transceiver-DA\Amplifiers\Audio\Phones Amplifier new.asc
Start Time: Wed Mar 12 08:37:10 2025
solver = Normal
Maximum thread count: 12
tnom = 27
temp = 27
method = modified trap
Direct Newton iteration for .op point succeeded.
Total elapsed time: 0.150 seconds.

